##C 2007.05.01
UCTE FILE CONVERTER FROM PSS/E RAW FILE
SBASE = 100.00000
##C---------------NODE BLOCK----------------------------------------------------------------------------------------------------
0         1         2         3         4         5         6         7         8        9         10        11        12       
12345678901234567890123456789012345678901234567890123456789012345678901234567890123456789012345678901234567890123456789012345678
<NodeID> <Optionname> * * < Spg> <PLast> <QLast> <PEin > <QEin > <PMin > <PMax > <QMin > <QMax > <Sta> <PPrim> <3ph  > < x_r > T
##N
##ZCH
SAATHA21 220AATHAL__1 0 0 236.28     0.0     0.0     0.0     0.0                                                                 
SAATHA22 220AATHAL__2 0 0 236.28     0.0     0.0     0.0     0.0                                                                 
SAATHA2A 220AATHAL__A 1 0 236.28  63.037  -9.073     0.0     0.0                                                                 
SAATHA2B 220AATHAL__B 1 0 236.28  65.747  -4.778     0.0     0.0                                                                 
SAIROL21 220AIROLO__1 0 0            0.0     0.0     0.0     0.0                                                                 
SAIROL22 220AIROLO__2 0 0 234.04     0.0     0.0     0.0     0.0                                                                 
SAIROL23 220AIROLO__3 0 0 234.04     0.0     0.0     0.0     0.0                                                                 
SAIROL2A 220AIROLO__A 1 0 234.04   3.799   -2.88     0.0     0.0                                                                 
SAIROL2B 220AIROLO__B 1 0            0.0     0.0     0.0     0.0     0.0   -29.0    14.5   -14.5                               H 
SAIROL2C 220AIROLO__C 1 2 233.33     0.0     0.0   -20.0    14.5     0.0   -29.0    14.5   -14.5                               H 
SALTGA21 220ALTGASS_1 0 0 236.33     0.0     0.0     0.0     0.0                                                                 
SALTGA22 220ALTGASS_2 0 0 236.33     0.0     0.0     0.0     0.0                                                                 
SALTGA2A 220ALTGASS_A 1 0 236.33  64.602  -8.249     0.0     0.0                                                                 
SALTGA2B 220ALTGASS_B 1 0 236.33  22.869  -2.331     0.0     0.0                                                                 
SASPHA11 380ASPHARD_1 0 0 408.88     0.0     0.0     0.0     0.0                                                                 
SASPHA12 380ASPHARD_2 0 0 408.88     0.0     0.0     0.0     0.0                                                                 
SASPHA13 380ASPHARD_3 0 0            0.0     0.0     0.0     0.0                                                                 
SASPHA1A 380ASPHARD_A 1 0 408.88 -14.563  11.586     0.0     0.0                                                                 
SAUWIE21 220AUWIESEN1 0 0 236.36     0.0     0.0     0.0     0.0                                                                 
SAUWIE22 220AUWIESEN2 0 0 236.36     0.0     0.0     0.0     0.0                                                                 
SAUWIE2A 220AUWIESENA 1 0 236.36  77.669   0.668     0.0     0.0                                                                 
SAUWIE2B 220AUWIESENB 1 0            0.0     0.0     0.0     0.0                                                                 
SAUWIE2C 220AUWIESENC 1 0 236.36  89.979 -23.457     0.0     0.0                                                                 
SAVEGN21 220AVEGNO__1 0 0 234.26     0.0     0.0     0.0     0.0                                                                 
SAVEGN22 220AVEGNO__2 0 0 234.26     0.0     0.0     0.0     0.0                                                                 
SAVEGN23 220AVEGNO__3 0 0 234.26     0.0     0.0     0.0     0.0                                                                 
SAVEGN24 220AVEGNO__4 0 0 234.26     0.0     0.0     0.0     0.0                                                                 
SAVEGN25 220AVEGNO__5 0 0 234.26     0.0     0.0     0.0     0.0                                                                 
SAVEGN26 220AVEGNO__6 0 0 234.26     0.0     0.0     0.0     0.0                                                                 
SAVEGN2A 220AVEGNO__A 1 0 234.26  10.184  -8.166     0.0     0.0                                                                 
SAVEGN2B 220AVEGNO__B 1 0            0.0     0.0     0.0     0.0                                                                 
SBAERE21 220BAERENBU1 0 0 233.30     0.0     0.0     0.0     0.0                                                                 
SBAERE22 220BAERENBU2 0 0 233.30     0.0     0.0     0.0     0.0                                                                 
SBAERE2A 220BAERENBUA 1 2 233.30     0.0     0.0     0.0  -8.188     0.0   -55.0    15.0   -16.0                               H 
SBAERE2B 220BAERENBUB 1 2 233.30     0.0     0.0     0.0  -8.188     0.0   -55.0    15.0   -16.0                               H 
SBAERE2C 220BAERENBUC 1 2 233.30     0.0     0.0     0.0  -8.188     0.0   -55.0    15.0   -16.0                               H 
SBAERE2D 220BAERENBUD 1 2 233.30     0.0     0.0     0.0  -8.188     0.0   -55.0    15.0   -16.0                               H 
SBANLI21 220BANLIEUE1 0 0            0.0     0.0     0.0     0.0                                                                 
SBANLI22 220BANLIEUE2 0 0 237.29     0.0     0.0     0.0     0.0                                                                 
SBANLI2A 220BANLIEUE_ 1 0 237.29  54.316 -40.999     0.0     0.0                                                                 
SBANLI2B 220BANLIEUE_ 1 0 237.29  57.402  29.087     0.0     0.0                                                                 
SBASSE11 380BASSECOU1 0 0 409.69     0.0     0.0     0.0     0.0                                                                 
SBASSE12 380BASSECOU2 0 0 409.69     0.0     0.0     0.0     0.0                                                                 
SBASSE1A 380BASSECOUA 1 0 409.69  52.967 -12.908     0.0     0.0                                                                 
SBASSE1B 380BASSECOUB 1 0 409.69  52.967 -12.908     0.0     0.0                                                                 
SBASSE21 220BASSECOU1 0 0 235.40     0.0     0.0     0.0     0.0                                                                 
SBASSE2T 220BASSECOUT 1 0            0.0     0.0     0.0     0.0                                                                 
SBASSE61 _50BASSECOU1 0 0 64.187     0.0     0.0     0.0     0.0                                                                 
SBATIA11 380BATIAZ__1 0 0 406.56     0.0     0.0     0.0     0.0                                                                 
SBATIA12 380BATIAZ__2 0 0 406.56     0.0     0.0     0.0     0.0                                                                 
SBATIA13 380BATIAZ__3 0 0 406.56     0.0     0.0     0.0     0.0                                                                 
SBATIA14 380BATIAZ__4 0 0 406.56     0.0     0.0     0.0     0.0                                                                 
SBATIA15 380BATIAZ__5 0 0 406.56     0.0     0.0     0.0     0.0                                                                 
SBATIA16 380BATIAZ__6 0 0 406.56     0.0     0.0     0.0     0.0                                                                 
SBATIA21 220BATIAZ__1 0 0            0.0     0.0     0.0     0.0                                                                 
SBATIA22 220BATIAZ__2 0 0 234.88     0.0     0.0     0.0     0.0                                                                 
SBATIA71 _11BATIAZ__1 0 0 25.773     0.0     0.0     0.0     0.0                                                                 
SBATIA72 _11BATIAZ__2 0 0 25.773     0.0     0.0     0.0     0.0                                                                 
SBATIA7A _11BATIAZ__A 1 2 25.773     0.0     0.0     0.0  -4.546     0.0   -95.0    42.0   -82.0                               H 
SBATIA7B _11BATIAZ__B 1 2 25.773     0.0     0.0     0.0  -4.546     0.0   -95.0    42.0   -82.0                               H 
SBAVON21 220BAVONA__1 0 0            0.0     0.0     0.0     0.0                                                                 
SBAVON22 220BAVONA__2 0 0 233.33     0.0     0.0     0.0     0.0                                                                 
SBAVON2A 220BAVONA__A 1 2 233.33     0.0     0.0     0.0  29.219     0.0   -70.0    50.0   -60.0                               H 
SBAVON2B 220BAVONA__B 1 2 233.33     0.0     0.0     0.0  29.219     0.0   -70.0    50.0   -60.0                               H 
SBENKE11 380BENKEN__1 0 0 404.95     0.0     0.0     0.0     0.0                                                                 
SBENKE12 380BENKEN__2 0 0 404.95     0.0     0.0     0.0     0.0                                                                 
SBENKE21 220BENKEN__1 0 0 236.71     0.0     0.0     0.0     0.0                                                                 
SBENKE22 220BENKEN__2 0 0 236.71     0.0     0.0     0.0     0.0                                                                 
SBENKE2T 220BENKEN__T 1 0            0.0     0.0     0.0     0.0                                                                 
SBENKE61 _50BENKEN__1 0 0 69.880     0.0     0.0     0.0     0.0                                                                 
SBEZNA11 380BEZNAU__1 0 0            0.0     0.0     0.0     0.0                                                                 
SBEZNA12 380BEZNAU__2 0 0 409.45     0.0     0.0     0.0     0.0                                                                 
SBEZNA21 220BEZNAU__1 0 0 237.29     0.0     0.0     0.0     0.0                                                                 
SBEZNA22 220BEZNAU__2 0 0 237.29     0.0     0.0     0.0     0.0                                                                 
SBEZNA2A 220BEZNAU__A 1 0 237.29  -0.296    8.16     0.0     0.0                                                                 
SBEZNA2B 220BEZNAU__B 1 2 237.29     0.0     0.0 -180.75  35.279    50.0  -182.5    97.3   -97.3                               N 
SBEZNA2C 220BEZNAU__C 1 0 237.29  22.324 -41.156     0.0     0.0                                                                 
SBEZNA2D 220BEZNAU__D 1 2 237.29     0.0     0.0 -180.75  24.597    50.0  -182.5    97.3   -97.3                               N 
SBEZNA2E 220BEZNAU__E 1 2 237.29     0.0     0.0 -180.75  24.597    50.0  -182.5    97.3   -97.3                               N 
SBEZNA2F 220BEZNAU__F 1 2 237.29     0.0     0.0 -180.75  35.279    50.0  -182.5    97.3   -97.3                               N 
SBEZNA2T 220BEZNAU__T 1 0            0.0     0.0     0.0     0.0                                                                 
SBEZNA71 _27BEZNAU__1 0 0 27.384     0.0     0.0     0.0     0.0                                                                 
SBIASC21 220BIASCA__1 0 0 233.33     0.0     0.0     0.0     0.0                                                                 
SBIASC22 220BIASCA__2 0 0 233.33     0.0     0.0     0.0     0.0                                                                 
SBIASC2A 220BIASCA__A 1 2 233.33     0.0     0.0     0.0  34.008     0.0  -116.0    52.5   -66.5                               H 
SBIASC2B 220BIASCA__B 1 0            0.0     0.0     0.0     0.0     0.0  -115.0    52.5   -66.5                               H 
SBIASC2C 220BIASCA__C 1 2 233.33     0.0     0.0     0.0  34.008     0.0  -116.0    52.5   -66.5                               H 
SBIASC2D 220BIASCA__D 1 2 233.33     0.0     0.0     0.0  34.008     0.0   -72.0    52.5   -66.5                               H 
SBICKI11 380BICKIGEN1 0 0 409.73     0.0     0.0     0.0     0.0                                                                 
SBICKI12 380BICKIGEN2 0 0 409.73     0.0     0.0     0.0     0.0                                                                 
SBICKI1T 380BICKIGENT 1 0            0.0     0.0     0.0     0.0                                                                 
SBICKI1U 380BICKIGENU 1 0            0.0     0.0     0.0     0.0                                                                 
SBICKI21 220BICKIGEN1 0 0            0.0     0.0     0.0     0.0                                                                 
SBICKI22 220BICKIGEN2 0 0 236.93     0.0     0.0     0.0     0.0                                                                 
SBICKI2A 220BICKIGENA 1 0 236.93 102.393 -25.921     0.0     0.0                                                                 
SBICKI2B 220BICKIGENB 1 0 236.93  96.648  10.059     0.0     0.0                                                                 
SBICKI61 _50BICKIGEN1 0 0            0.0     0.0     0.0     0.0                                                                 
SBICKI62 _50BICKIGEN2 0 0 70.120     0.0     0.0     0.0     0.0                                                                 
SBIRRG21 220BIRR_GT_1 0 0 237.28     0.0     0.0     0.0     0.0                                                                 
SBIRRG2A 220BIRR_GT_A 1 2 237.29     0.0     0.0     0.0    -1.0     0.0  -330.0     1.0    -1.0                               G 
SBIRR_21 220BIRR____1 0 0 237.26     0.0     0.0     0.0     0.0                                                                 
SBIRR_2A 220BIRR____A 1 0 237.26  85.846   0.011     0.0     0.0                                                                 
SBITSC21 220BITSCH__1 0 0 233.33     0.0     0.0     0.0     0.0                                                                 
SBITSC22 220BITSCH__2 0 0 233.33     0.0     0.0     0.0     0.0                                                                 
SBITSC23 220BITSCH__3 0 0 233.33     0.0     0.0     0.0     0.0                                                                 
SBITSC2A 220BITSCH__A 1 0 233.33   5.465  -0.701     0.0     0.0                                                                 
SBITSC2B 220BITSCH__B 1 2 233.33     0.0     0.0     0.0   6.061     0.0   -97.0    49.6   -57.8                               H 
SBITSC2C 220BITSCH__C 1 0            0.0     0.0     0.0     0.0     0.0   -97.0    49.6   -57.8                               H 
SBITSC2D 220BITSCH__D 1 2 233.33     0.0     0.0     0.0   6.061     0.0  -133.0    49.6   -57.8                               H 
SBONAD11 380BONADUZ_1 0 0            0.0     0.0     0.0     0.0                                                                 
SBONAD12 380BONADUZ_2 0 0 406.60     0.0     0.0     0.0     0.0                                                                 
SBONAD21 220BONADUZ_1 0 0 237.42     0.0     0.0     0.0     0.0                                                                 
SBONAD2A 220BONADUZ_A 1 0 237.42  -5.624  29.272     0.0     0.0                                                                 
SBOTTE21 220BOTTEREN1 0 0 234.55     0.0     0.0     0.0     0.0                                                                 
SBOTTE22 220BOTTEREN2 0 0 234.55     0.0     0.0     0.0     0.0                                                                 
SBOTTE23 220BOTTEREN3 0 0            0.0     0.0     0.0     0.0                                                                 
SBOTTE2A 220BOTTERENA 1 0 234.55  13.425  10.534     0.0     0.0                                                                 
SBOTTE2B 220BOTTERENB 1 0 234.55  22.843  20.319     0.0     0.0                                                                 
SBREIT11 380BREITE__1 0 0 409.33     0.0     0.0     0.0     0.0                                                                 
SBREIT12 380BREITE__2 0 0 409.33     0.0     0.0     0.0     0.0                                                                 
SBREIT1T 380BREITE__T 1 0            0.0     0.0     0.0     0.0                                                                 
SBREIT21 220BREITE__1 0 0 235.54     0.0     0.0     0.0     0.0                                                                 
SBREIT22 220BREITE__2 0 0 235.54     0.0     0.0     0.0     0.0                                                                 
SBREIT71 _16BREITE__1 0 0 27.324     0.0     0.0     0.0     0.0                                                                 
SBREIT7A _16BREITE__A 1 0 27.324     0.0     0.0     0.0     0.0                                                                 
SBREIT7B _16BREITE__B 1 0 27.324   0.193  52.353     0.0     0.0                                                                 
SCASTA21 220CASTASEG1 0 0 235.15     0.0     0.0     0.0     0.0                                                                 
SCASTA22 220CASTASEG2 0 0 235.15     0.0     0.0     0.0     0.0                                                                 
SCASTA23 220CASTASEG3 0 0 235.15     0.0     0.0     0.0     0.0                                                                 
SCASTA2A 220CASTASEGA 1 2 235.15     0.0     0.0  -4.301 -12.428     0.0   -50.0    13.0   -13.0                               H 
SCASTA2B 220CASTASEGB 1 2 235.15     0.0     0.0  -4.301 -12.428     0.0   -50.0    13.0   -13.0                               H 
SCAVER21 220CAVERGNO1 0 0 233.77     0.0     0.0     0.0     0.0                                                                 
SCAVER22 220CAVERGNO2 0 0 233.77     0.0     0.0     0.0     0.0                                                                 
SCAVER71 _12CAVERGNO1 0 0 27.344     0.0     0.0     0.0     0.0                                                                 
SCAVER72 _12CAVERGNO2 0 0 27.344     0.0     0.0     0.0     0.0                                                                 
SCAVER7A _12CAVERGNOA 1 2 27.344     0.0     0.0     0.0   0.477     0.0   -26.0    13.0   -26.0                               H 
SCAVER7B _12CAVERGNOB 1 2 27.344     0.0     0.0     0.0   0.477     0.0   -26.0    13.0   -26.0                               H 
SCAVER7C _12CAVERGNOC 1 2 27.344     0.0     0.0     0.0   0.477     0.0   -26.0    13.0   -26.0                               H 
SCAVER7D _12CAVERGNOD 1 2 27.344     0.0     0.0     0.0   0.477     0.0   -26.0    13.0   -26.0                               H 
SCHAMO11 380CHAMOSON1 0 0 405.00     0.0     0.0     0.0     0.0                                                                 
SCHAMO12 380CHAMOSON2 0 0 405.00     0.0     0.0     0.0     0.0                                                                 
SCHAMO13 380CHAMOSON3 0 0 405.00     0.0     0.0     0.0     0.0                                                                 
SCHAMO14 380CHAMOSON4 0 0 405.00     0.0     0.0     0.0     0.0                                                                 
SCHAMO15 380CHAMOSON5 0 0 405.00     0.0     0.0     0.0     0.0                                                                 
SCHAMO16 380CHAMOSON6 0 0 405.00     0.0     0.0     0.0     0.0                                                                 
SCHAMO1A 380CHAMOSONA 1 2 405.00     0.0     0.0     0.0  22.553     0.0  -668.0   324.0  -286.0                               H 
SCHAMO1B 380CHAMOSONB 1 2 405.00     0.0     0.0     0.0  22.553     0.0  -668.0   324.0  -286.0                               H 
SCHAMO1C 380CHAMOSONC 1 2 405.00     0.0     0.0     0.0  22.553     0.0  -668.0   324.0  -286.0                               H 
SCHAMO1T 380CHAMOSONT 1 0            0.0     0.0     0.0     0.0                                                                 
SCHAMO21 220CHAMOSON1 0 0 235.26     0.0     0.0     0.0     0.0                                                                 
SCHAMO22 220CHAMOSON2 0 0            0.0     0.0     0.0     0.0                                                                 
SCHAMO23 220CHAMOSON3 0 0 235.26     0.0     0.0     0.0     0.0                                                                 
SCHAMO24 220CHAMOSON4 0 0            0.0     0.0     0.0     0.0                                                                 
SCHAMO25 220CHAMOSON5 0 0 235.26     0.0     0.0     0.0     0.0                                                                 
SCHAMO26 220CHAMOSON6 0 0 235.26     0.0     0.0     0.0     0.0                                                                 
SCHAMO27 220CHAMOSON7 0 0 235.26     0.0     0.0     0.0     0.0                                                                 
SCHAMO28 220CHAMOSON8 0 0 235.26     0.0     0.0     0.0     0.0                                                                 
SCHAMO29 220CHAMOSON9 0 0 235.26     0.0     0.0     0.0     0.0                                                                 
SCHAMO2A 220CHAMOSONA 0 0 235.26     0.0     0.0     0.0     0.0                                                                 
SCHAMO2B 220CHAMOSONB 0 0 235.26     0.0     0.0     0.0     0.0                                                                 
SCHAMO2C 220CHAMOSONC 0 0 235.26     0.0     0.0     0.0     0.0                                                                 
SCHAMO2D 220CHAMOSOND 0 0            0.0     0.0     0.0     0.0                                                                 
SCHAMO2E 220CHAMOSONE 0 0 235.26     0.0     0.0     0.0     0.0                                                                 
SCHAMO2F 220CHAMOSONF 0 0            0.0     0.0     0.0     0.0                                                                 
SCHAMO2G 220CHAMOSONG 0 0 235.26     0.0     0.0     0.0     0.0                                                                 
SCHAMO2I 220CHAMOSONI 1 0            0.0     0.0     0.0     0.0                                                                 
SCHAMO2J 220CHAMOSONJ 1 0            0.0     0.0     0.0     0.0     0.0   -64.0    32.0   -32.0                               H 
SCHAMO2K 220CHAMOSONK 1 0 235.26   0.268  -0.427     0.0     0.0                                                                 
SCHAMO2L 220CHAMOSONL 1 0            0.0     0.0     0.0     0.0     0.0   -64.0    32.0   -32.0                               H 
SCHAMO2M 220CHAMOSONM 1 0            0.0     0.0     0.0     0.0     0.0   -64.0    32.0   -32.0                               H 
SCHAMO2N 220CHAMOSONN 1 0            0.0     0.0     0.0     0.0     0.0   -64.0    32.0   -32.0                               H 
SCHAMO2O 220CHAMOSONO 1 0            0.0     0.0     0.0     0.0     0.0   -64.0    32.0   -32.0                               H 
SCHAMO2P 220CHAMOSONP 1 0            0.0     0.0     0.0     0.0     0.0   -64.0    32.0   -32.0                               H 
SCHAMO71 _30CHAMOSON1 0 0 27.118     0.0     0.0     0.0     0.0                                                                 
SCHAMO7A _30CHAMOSONA 1 0 27.118  -0.466  -0.387     0.0     0.0                                                                 
SCHAND21 220CHANDOLI1 0 0 235.26     0.0     0.0     0.0     0.0                                                                 
SCHAND22 220CHANDOLI2 0 0 235.26     0.0     0.0     0.0     0.0                                                                 
SCHAND23 220CHANDOLI3 0 0 235.26     0.0     0.0     0.0     0.0                                                                 
SCHAND2A 220CHANDOLIA 1 0            0.0     0.0     0.0     0.0                                                                 
SCHAND2B 220CHANDOLIB 1 0 235.26  22.973   3.197     0.0     0.0                                                                 
SCHATE11 380CHATELAR1 0 0 406.85     0.0     0.0     0.0     0.0                                                                 
SCHATE12 380CHATELAR2 0 0 406.85     0.0     0.0     0.0     0.0                                                                 
SCHATE13 380CHATELAR3 0 0 406.85     0.0     0.0     0.0     0.0                                                                 
SCHATE14 380CHATELAR4 0 0 406.85     0.0     0.0     0.0     0.0                                                                 
SCHATE15 380CHATELAR5 0 0 406.85     0.0     0.0     0.0     0.0                                                                 
SCHATE16 380CHATELAR6 0 0 406.85     0.0     0.0     0.0     0.0                                                                 
SCHATE17 380CHATELAR7 0 0            0.0     0.0     0.0     0.0                                                                 
SCHATE1A 380CHATELARA 1 0            0.0     0.0     0.0     0.0                                                                 
SCHATE21 220CHATELAR1 0 0 234.08     0.0     0.0     0.0     0.0                                                                 
SCHATE22 220CHATELAR2 0 0 234.08     0.0     0.0     0.0     0.0                                                                 
SCHATE23 220CHATELAR3 0 0            0.0     0.0     0.0     0.0                                                                 
SCHATE2T 220CHATELART 1 0            0.0     0.0     0.0     0.0                                                                 
SCHATE71 _27CHATELAR1 0 0 25.937     0.0     0.0     0.0     0.0                                                                 
SCHIPP11 380CHIPPIS_1 0 0 404.65     0.0     0.0     0.0     0.0                                                                 
SCHIPP12 380CHIPPIS_2 0 0 404.65     0.0     0.0     0.0     0.0                                                                 
SCHIPP13 380CHIPPIS_3 0 0 404.65     0.0     0.0     0.0     0.0                                                                 
SCHIPP14 380CHIPPIS_4 0 0 404.65     0.0     0.0     0.0     0.0                                                                 
SCHIPP15 380CHIPPIS_5 0 0 404.65     0.0     0.0     0.0     0.0                                                                 
SCHIPP16 380CHIPPIS_6 0 0 404.65     0.0     0.0     0.0     0.0                                                                 
SCHIPP1A 380CHIPPIS_A 1 0            0.0     0.0     0.0     0.0                                                                 
SCHIPP21 220CHIPPIS_1 0 0 235.29     0.0     0.0     0.0     0.0                                                                 
SCHIPP22 220CHIPPIS_2 0 0 235.29     0.0     0.0     0.0     0.0                                                                 
SCHIPP23 220CHIPPIS_3 0 0 235.29     0.0     0.0     0.0     0.0                                                                 
SCHIPP24 220CHIPPIS_4 0 0 235.29     0.0     0.0     0.0     0.0                                                                 
SCHIPP25 220CHIPPIS_5 0 0 235.29     0.0     0.0     0.0     0.0                                                                 
SCHIPP26 220CHIPPIS_6 0 0 235.29     0.0     0.0     0.0     0.0                                                                 
SCHIPP2A 220CHIPPIS_A 1 0 235.29  -6.947   8.007     0.0     0.0                                                                 
SCHIPP2B 220CHIPPIS_B 1 0 235.29  -4.796  -5.758     0.0     0.0                                                                 
SCHIPP2C 220CHIPPIS_C 1 0 235.29  -6.845   7.886     0.0     0.0                                                                 
SCHIPP2T 220CHIPPIS_T 1 0            0.0     0.0     0.0     0.0                                                                 
SCHIPP71 _27CHIPPIS_1 0 0 25.900     0.0     0.0     0.0     0.0                                                                 
SCRANS21 220CRANS___1 0 0 237.98     0.0     0.0     0.0     0.0                                                                 
SCRANS22 220CRANS___2 0 0 237.98     0.0     0.0     0.0     0.0                                                                 
SCRANS23 220CRANS___3 0 0            0.0     0.0     0.0     0.0                                                                 
SCRANS2A 220CRANS____ 1 0 237.98  45.588 -30.175     0.0     0.0                                                                 
SEGLIS21 220EGLISAU_1 0 0 236.45     0.0     0.0     0.0     0.0                                                                 
SEGLIS2A 220EGLISAU_A 1 0            0.0     0.0     0.0     0.0                                                                 
SFAELL21 220FAELLAND1 0 0 236.10     0.0     0.0     0.0     0.0                                                                 
SFAELL22 220FAELLAND2 0 0 236.10     0.0     0.0     0.0     0.0                                                                 
SFAELL23 220FAELLAND3 0 0 236.10     0.0     0.0     0.0     0.0                                                                 
SFAELL24 220FAELLAND4 0 0            0.0     0.0     0.0     0.0                                                                 
SFAELL2A 220FAELLANDA 1 0            0.0     0.0     0.0     0.0                                                                 
SFAELL2B 220FAELLANDB 1 0 236.10   84.05  -7.494     0.0     0.0                                                                 
SFAELL2C 220FAELLANDC 1 0 236.10  63.474  14.284     0.0     0.0                                                                 