##C 2007.05.01
PSS/E v. 32
Generated CEPS
##N
##ZCZ
CYGRC_51 CYGRC_51     0 0            0.0     0.0     0.0     0.0
CTRZ2_51 CTRZ2_51     0 0          12.04   11.07     0.0     0.0
CTRZ2_52 CTRZ2_52     0 0            0.0     0.0     0.0     0.0
CYRIC_51 CYRIC_51     0 0            0.0     0.0     0.0     0.0
CTKAR_51 CTKAR_51     0 2  117.5    4.77    4.85 -23.927  -7.167     0.0   -50.0    18.0   -32.0
CALB__1A CALB__1A     0 0            0.0     0.0     0.0     0.0
CALB__1B CALB__1B     0 0            0.0     0.0     0.0     0.0
CALB__1C CALB__1C     0 0            0.0     0.0     0.0     0.0
CALB__1D CALB__1D     0 0            0.0     0.0     0.0     0.0
CALB__51 CALB__51     0 0            0.0     0.0     0.0     0.0
CALB__52 CALB__52     0 0            0.0     0.0     0.0     0.0
CALB__53 CALB__53     0 0           6.08   -0.39     0.0     0.0
CALB__54 CALB__54     0 0            0.0     0.0     0.0     0.0
CALB__55 CALB__55     0 0            0.0     0.0     0.0     0.0
CALB__56 CALB__56     0 0            0.0     0.0     0.0     0.0
CALB__58 CALB__58     0 0            0.0     0.0     0.0     0.0
CALB__59 CALB__59     0 0            0.0     0.0     0.0     0.0
CALB__50 CALB__50     0 0            0.0     0.0     0.0     0.0
CVRBN_51 CVRBN_51     0 0            0.0     0.0     0.0     0.0
CBAB__11 CBAB__11     0 0            0.0     0.0     0.0     0.0
CBAB__12 CBAB__12     0 0            0.0     0.0     0.0     0.0
CBAB__15 CBAB__15     0 0            0.0     0.0     0.0     0.0
CBAB__51 CBAB__51     0 0            0.0     0.0     0.0     0.0
CBAB__52 CBAB__52     0 0            0.0     0.0     0.0     0.0
CBAB__53 CBAB__53     0 0            0.0     0.0     0.0     0.0
CBAB__54 CBAB__54     0 0           1.34   -7.49     0.0     0.0
CBAB__55 CBAB__55     0 0            0.0     0.0     0.0     0.0
CBAB__56 CBAB__56     0 0            0.0     0.0     0.0     0.0
CVRBN_52 CVRBN_52     0 0           6.01   -0.07     0.0     0.0
CYSTC_51 CYSTC_51     0 0            0.0     0.0     0.0     0.0
CYSTC_52 CYSTC_52     0 0            0.0     0.0     0.0     0.0
CBEZ__11 CBEZ__11     0 0            0.0     0.0     0.0     0.0
CBEZ__12 CBEZ__12     0 0            0.0     0.0     0.0     0.0
CBEZ__15 CBEZ__15     0 0            0.0     0.0     0.0     0.0
CBEZ__21 CBEZ__21     0 0            0.0     0.0     0.0     0.0
CBEZ__51 CBEZ__51     0 0           0.46   -5.64     0.0     0.0
CBEZ__52 CBEZ__52     0 0            0.0     0.0     0.0     0.0
CBEZ__53 CBEZ__53     0 0            0.0     0.0     0.0     0.0
CBEZ__54 CBEZ__54     0 0            0.0     0.0     0.0     0.0
CBEZ__55 CBEZ__55     0 0           0.62   -7.24     0.0     0.0
CBEZ__56 CBEZ__56     0 0            0.0     0.0     0.0     0.0
CBEZ__57 CBEZ__57     0 0            0.0     0.0     0.0     0.0
CBEZ__58 CBEZ__58     0 0            0.0     0.0     0.0     0.0
CROPC_51 CROPC_51     0 0            0.0     0.0     0.0     0.0
CROPC_52 CROPC_52     0 0            0.0     0.0     0.0     0.0
CROPC_53 CROPC_53     0 0            0.0     0.0     0.0     0.0
CROPC_54 CROPC_54     0 0            0.0     0.0     0.0     0.0
COVTB_51 COVTB_51     0 0            0.0     0.0     0.0     0.0
CCEB__11 CCEB__11     0 0            0.0     0.0     0.0     0.0
CCEB__12 CCEB__12     0 0            0.0     0.0     0.0     0.0
CCEB__15 CCEB__15     0 0            0.0     0.0     0.0     0.0
CCEB__51 CCEB__51     0 2  118.6   16.37   -9.85  -0.685     0.0     0.0  -16.88     0.0     0.0
CCEB__52 CCEB__52     0 2  118.7   16.87  -12.81  -0.556     0.0     0.0  -16.88     0.0     0.0
CCEB__53 CCEB__53     0 0            0.0     0.0     0.0     0.0
CCEB__54 CCEB__54     0 0            0.0     0.0     0.0     0.0
CCST__11 CCST__11     0 0            0.0     0.0     0.0     0.0
CCST__12 CCST__12     0 0            0.0     0.0     0.0     0.0
CCST__15 CCST__15     0 0            0.0     0.0     0.0     0.0
CCST__22 CCST__22     0 0            0.0     0.0     0.0     0.0
CCST__23 CCST__23     0 0            0.0     0.0     0.0     0.0
CCST__25 CCST__25     0 0            0.0     0.0     0.0     0.0
CCST__51 CCST__51     0 0            0.0     0.0     0.0     0.0
CCST__52 CCST__52     0 0            0.0     0.0     0.0     0.0
CCST__53 CCST__53     0 0            0.0     0.0     0.0     0.0
CCST__54 CCST__54     0 0            0.0     0.0     0.0     0.0
CCST__55 CCST__55     0 0            0.4  -14.14     0.0     0.0
CCST__56 CCST__56     0 0            0.0     0.0     0.0     0.0
CDAS__11 CDAS__11     0 0            0.0     0.0     0.0     0.0
CDAS__12 CDAS__12     0 0            0.0     0.0     0.0     0.0
CDAS__13 CDAS__13     0 0            0.0     0.0     0.0     0.0
CDAS__14 CDAS__14     0 0            0.0     0.0     0.0     0.0
CDAS__15 CDAS__15     0 0            0.0     0.0     0.0     0.0
CDAS__51 CDAS__51     0 0            0.0     0.0     0.0     0.0
CDAS__52 CDAS__52     0 0            0.0     0.0     0.0     0.0
CDAS__53 CDAS__53     0 0            0.0     0.0     0.0     0.0
CDAS__54 CDAS__54     0 0            0.0     0.0     0.0     0.0
CDAS__55 CDAS__55     0 0            0.0     0.0     0.0     0.0
CDAS__56 CDAS__56     0 0            0.0     0.0     0.0     0.0
CDAS__57 CDAS__57     0 0            0.0     0.0     0.0     0.0
CDAS__58 CDAS__58     0 0            0.0     0.0     0.0     0.0
CYGRC_52 CYGRC_52     0 0            0.0     0.0     0.0     0.0
CROKC_51 CROKC_51     0 0            0.0     0.0     0.0     0.0
CEDAL_11 CEDAL_11     0 0          -0.24   -3.15     0.0   -0.01   256.0  -252.0   192.0  -152.0
CEDAL_12 CEDAL_12     0 0          -0.23   -3.13     0.0   -0.01   256.0  -252.0   192.0  -152.0
CZDB1_51 CZDB1_51     0 0           2.66    1.18     0.0     0.0
CZDB1_52 CZDB1_52     0 0            0.0     0.0     0.0     0.0
CROKC_52 CROKC_52     0 2  119.8   21.56    1.42  -1.095     0.0     0.0  -19.07     0.0     0.0
CVREK_51 CVREK_51     0 0           5.66     0.9     0.0     0.0
CHSLA_51 CHSLA_51     0 0           2.86    0.33     0.0     0.0
CJACD_51 CJACD_51     0 0            0.0     0.0     0.0     0.0
CCHLU_51 CCHLU_51     0 2  119.3    8.49    1.45     0.0     0.0     0.0    -2.0     1.0    -1.4
CVSTN_51 CVSTN_51     0 0          14.38    1.13     0.0     0.0
CVSTN_52 CVSTN_52     0 0            0.0     0.0     0.0     0.0
CVSTN_53 CVSTN_53     0 0            0.0     0.0     0.0     0.0
CYJAC_51 CYJAC_51     0 0            0.0     0.0     0.0     0.0
CEDST_11 CEDST_11     0 0            0.0     0.0     0.0   -0.01   660.0  -650.0   540.0  -520.0
CYJAC_52 CYJAC_52     0 0            0.0     0.0     0.0     0.0
CORLU_51 CORLU_51     0 0           8.43   -2.63     0.0     0.0
COVPO_51 COVPO_51     0 0           8.55    -2.1     0.0     0.0
CYEJP_51 CYEJP_51     0 0            0.0     0.0     0.0     0.0
CYEJP_52 CYEJP_52     0 0            0.0     0.0     0.0     0.0
CKRIM_51 CKRIM_51     0 2  119.6    29.6    0.81  -5.962     0.0     0.0  -49.31     0.0     0.0
CKRIM_52 CKRIM_52     0 0            0.0     0.0     0.0     0.0
COVTB_52 COVTB_52     0 0            0.0     0.0     0.0     0.0
CMOSN_51 CMOSN_51     0 0          22.62    4.43     0.0     0.0
CMOSN_52 CMOSN_52     0 0            0.0     0.0     0.0     0.0
CHOSE_51 CHOSE_51     0 0            0.0     0.0     0.0   -0.01     0.0    -9.4     0.1   -0.12
CMOSN_53 CMOSN_53     0 0            0.0     0.0     0.0     0.0
CEDU1_11 CEDU1_11     0 2  412.7    27.0    21.0 -494.98 -162.89     0.0  -598.0   170.0  -330.0
CEDU2_11 CEDU2_11     0 2  412.7    27.0    21.0 -491.99 -162.89     0.0  -598.0   170.0  -330.0
CEDU3_11 CEDU3_11     0 0            0.0     0.0     0.0   -0.01     0.0  -598.0   170.0  -330.0
CEDU4_11 CEDU4_11     0 2  412.7    27.0    21.0 -495.97 -162.89     0.0  -598.0   170.0  -330.0
CE802_51 CE802_51     0 0           9.76    1.96     0.0     0.0
CE802_52 CE802_52     0 0            0.0     0.0     0.0     0.0
CETI1_51 CETI1_51     0 0           0.48    0.23     0.0     0.0
CHRZE_51 CHRZE_51     0 0            0.0     0.0     0.0   -0.01     0.0   -7.18     0.0     0.0
CCEVE_51 CCEVE_51     0 2  117.3   19.82    0.07  -3.816    0.66     0.0    -6.6    0.66   -0.79
CEDET_57 CEDET_57     0 0            0.3     0.3     0.0     0.0
CECHV_11 CECHV_11     0 2  414.5   10.03    10.0 -114.61  17.472     0.0  -440.0   206.0  -340.0
CECHV_12 CECHV_12     0 2  414.5   10.03    10.0 -115.61  17.384     0.0  -440.0   206.0  -340.0
CEDET_58 CEDET_58     0 0           0.03   -0.33     0.0     0.0
CKOJN_51 CKOJN_51     0 2  117.4    8.59    0.25  -3.268     0.0     0.0   -20.6     0.0     0.0
CHNEV_51 CHNEV_51     0 0           8.15   -0.26     0.0     0.0
CELED_11 CELED_11     0 0           3.48   -4.97     0.0     0.0
CHNEV_52 CHNEV_52     0 0            0.0     0.0     0.0     0.0
CHOBR_51 CHOBR_51     0 0            0.0     0.0     0.0     0.0
CCSAR_51 CCSAR_51     0 0            0.0     0.0     0.0     0.0
CZLIS_51 CZLIS_51     0 0           5.13    6.15     0.0     0.0
CZLIS_52 CZLIS_52     0 0            0.0     0.0     0.0     0.0
CEME3_11 CEME3_11     0 0            0.0     0.0     0.0     0.0
CEORL_21 CEORL_21     0 2  237.0    2.01   -0.18 -35.478   5.046     0.0  -182.0   194.0  -120.0
CEORL_22 CEORL_22     0 2  237.0    2.01   -0.17 -35.478   5.046     0.0  -182.0   194.0  -120.0
CORLU_52 CORLU_52     0 0            0.0     0.0     0.0     0.0
CYVER_51 CYVER_51     0 0            0.0     0.0     0.0     0.0
CROPC_55 CROPC_55     0 0            0.0     0.0     0.0     0.0
CEPOC_11 CEPOC_11     0 2  412.9   23.17    19.1 -365.69   8.306     0.0  -630.0   333.0  -534.0
CEPOC_13 CEPOC_13     0 2  412.9    13.1    9.36 -204.77   2.364     0.0  -420.0   222.0  -356.0
CROPC_56 CROPC_56     0 0            0.0     0.0     0.0     0.0
CRIVI_51 CRIVI_51     0 0            0.0     0.0     0.0     0.0
CRIVI_52 CRIVI_52     0 0          10.11   -2.21     0.0     0.0
CBOHP_51 CBOHP_51     0 0            0.0     0.0     0.0     0.0
CBOHP_52 CBOHP_52     0 0           10.6    0.21     0.0     0.0
CBOHP_53 CBOHP_53     0 0            0.0     0.0     0.0     0.0
CYSKN_51 CYSKN_51     0 0            0.0     0.0     0.0     0.0
CYSKN_52 CYSKN_52     0 0            0.0     0.0     0.0     0.0
CDDA2_51 CDDA2_51     0 0            0.0     0.0     0.0     0.0
CEPR1_11 CEPR1_11     0 0            0.0     0.0     0.0     0.0
CDDA2_52 CDDA2_52     0 0            0.0     0.0     0.0     0.0
CZDB2_51 CZDB2_51     0 0           1.62   -0.16     0.0     0.0
CNOH4_51 CNOH4_51     0 0            0.0     0.0     0.0     0.0
CZDB2_52 CZDB2_52     0 0           1.59   -1.18     0.0     0.0
CNOH4_52 CNOH4_52     0 0            0.0     0.0     0.0     0.0
CSKVM_51 CSKVM_51     0 0            0.0     0.0     0.0     0.0
CSKVM_52 CSKVM_52     0 0            3.2    0.94     0.0     0.0
CYOPJ_51 CYOPJ_51     0 0            0.0     0.0     0.0     0.0
CBELA_51 CBELA_51     0 0            0.0     0.0     0.0   -0.01     0.0  -16.74     0.0     0.0
CYOPJ_52 CYOPJ_52     0 0            0.0     0.0     0.0     0.0
CEPR2_11 CEPR2_11     0 0            0.0     0.0     0.0   -0.01     0.0  -288.0    82.0  -155.0
CEPR2_12 CEPR2_12     0 2  413.5   24.02    20.0 -389.63  -7.887     0.0  -576.0   164.0  -310.0
COVHB_51 COVHB_51     0 0            0.0     0.0     0.0     0.0
COVHB_52 COVHB_52     0 0          22.83    3.16     0.0     0.0
CEPVR_21 CEPVR_21     0 2  237.4     0.0     0.0   -12.0   1.012     0.0  -200.0    98.0  -190.0
CEPVR_22 CEPVR_22     0 0            0.0     0.0     0.0   -0.01     0.0  -198.0    97.0  -186.0
CCHD__59 CCHD__59     0 0            0.0     0.0     0.0     0.0
CZBIR_51 CZBIR_51     0 0            0.0     0.0     0.0   -0.01     0.0   -6.49     0.0     0.0
CETEM_11 CETEM_11     0 2  416.6   50.08    30.0 -1084.3 -96.992     0.0 -1125.0   100.0  -660.0
CETEM_12 CETEM_12     0 3  416.3   50.07    30.0 -1086.5  52.705     0.0 -1125.0   470.0  -660.0
CZBIR_52 CZBIR_52     0 2  119.8    5.42    0.33  -1.483     0.0     0.0   -6.49     0.0     0.0
CROTA_51 CROTA_51     0 0            0.0     0.0     0.0     0.0
CROTA_52 CROTA_52     0 2  117.5   16.66     4.0  -1.978   1.568     0.0  -25.02     2.5   -3.01
CETIS_21 CETIS_21     0 2  237.3     7.7    5.78 -84.196    10.4     0.0  -114.0    40.0   -77.0
CETIS_51 CETIS_51     0 0            0.0     0.0     0.0   -0.01     0.0   -64.0    18.0   -49.0
CETIS_52 CETIS_52     0 2  118.5     0.0     0.0 -23.415   5.175     0.0   -64.0    18.0   -49.0
CETIS_53 CETIS_53     0 2  118.5     0.0     0.0 -23.415   6.697     0.0   -64.0    18.0   -49.0
CETIS_55 CETIS_55     0 0            0.0     0.0     0.0   -0.01     0.0   -12.8     8.2   -11.4
CDLZY_51 CDLZY_51     0 0            0.0     0.0     0.0     0.0
CDLZY_52 CDLZY_52     0 0            0.0     0.0     0.0     0.0
CETBE_51 CETBE_51     0 0            0.0     0.0     0.0     0.0
CETBE_52 CETBE_52     0 2  117.9    2.81    5.91 -53.804 -13.161     0.0  -93.75    30.0   -60.0
CMYTD_51 CMYTD_51     0 0           0.61    0.55     0.0     0.0
CMYTD_52 CMYTD_52     0 0            0.0     0.0     0.0     0.0
CYTRZ_51 CYTRZ_51     0 0            0.0     0.0     0.0     0.0
CYTRZ_52 CYTRZ_52     0 0            0.0     0.0     0.0     0.0
CGRCD_51 CGRCD_51     0 0            0.0     0.0     0.0     0.0
CGRCD_52 CGRCD_52     0 0           2.44    0.07     0.0     0.0
CETU2_11 CETU2_11     0 2  413.5   20.07    20.0 -228.23 -20.026     0.0  -448.0   155.0  -247.0
CETU2_12 CETU2_12     0 2  413.5    10.0    10.0 -199.99  -1.779     0.0  -448.0   155.0  -247.0
CMEDE_51 CMEDE_51     0 2  120.4    2.71   -2.29  -0.533  -0.205     0.0    -1.8    0.18   -0.22
CVYDR_51 CVYDR_51     0 0           -1.4   -0.15     0.0     0.0
COVPO_52 COVPO_52     0 0            0.0     0.0     0.0     0.0
CCHD__11 CCHD__11     0 0            0.0     0.0     0.0     0.0
CCHD__12 CCHD__12     0 0            0.0     0.0     0.0     0.0
CCHD__13 CCHD__13     0 0            0.0     0.0     0.0     0.0
CCHD__14 CCHD__14     0 0            0.0     0.0     0.0     0.0
CCHD__51 CCHD__51     0 0            0.0     0.0     0.0     0.0
CCHD__52 CCHD__52     0 2  117.8   10.14    1.83  -2.229     0.0     0.0   -7.22     0.0     0.0
CCHD__53 CCHD__53     0 0            0.0     0.0     0.0     0.0
CCHD__54 CCHD__54     0 2  117.8   13.27  -18.14  -0.215     0.0     0.0   -3.61     0.0     0.0
CCHD__55 CCHD__55     0 0            0.0     0.0     0.0     0.0
CCHD__56 CCHD__56     0 0            0.0     0.0     0.0     0.0
CCHD__57 CCHD__57     0 0            0.0     0.0     0.0     0.0
CCHD__58 CCHD__58     0 0            0.0     0.0     0.0     0.0
COVTB_53 COVTB_53     0 0            0.0     0.0     0.0     0.0
CCHR__11 CCHR__11     0 0            0.0     0.0     0.0     0.0
CCHR__12 CCHR__12     0 0            0.0     0.0     0.0     0.0
CCHR__15 CCHR__15     0 0            0.0     0.0     0.0     0.0
CCHR__51 CCHR__51     0 0            0.0     0.0     0.0     0.0
CCHR__52 CCHR__52     0 2  120.0   17.27    1.57  -1.147     0.0     0.0   -8.49     0.0     0.0
CCHR__53 CCHR__53     0 0           0.54   -12.0     0.0     0.0
CCHR__54 CCHR__54     0 0            0.0     0.0     0.0     0.0
CCHR__55 CCHR__55     0 0            0.0     0.0     0.0     0.0
CCHR__56 CCHR__56     0 0            0.0     0.0     0.0     0.0
CCHR__57 CCHR__57     0 0            0.0     0.0     0.0     0.0
CCHR__58 CCHR__58     0 0            0.0     0.0     0.0     0.0
CVTRE_51 CVTRE_51     0 2  118.4     0.0     0.0     0.0    1.38     0.0   -13.8    1.38   -1.64
CHOLS_51 CHOLS_51     0 0            0.0     0.0     0.0   -0.01     0.0   -7.84     0.0     0.0
CCHT__21 CCHT__21     0 0            0.0     0.0     0.0     0.0
CCHT__22 CCHT__22     0 0            0.0     0.0     0.0     0.0
CCHT__51 CCHT__51     0 2  115.6    6.68   -8.38  -0.443     0.0     0.0  -24.63     0.0     0.0
CCHT__52 CCHT__52     0 0            0.0     0.0     0.0     0.0
CCHT__53 CCHT__53     0 0            0.0     0.0     0.0     0.0
CCHT__54 CCHT__54     0 0            0.0     0.0     0.0     0.0
CCHT__55 CCHT__55     0 2  115.6    11.2    -8.3  -0.887     0.0     0.0  -49.26     0.0     0.0
CCHT__56 CCHT__56     0 0            0.0     0.0     0.0     0.0
CCHT__11 CCHT__11     0 0            0.0     0.0     0.0     0.0
CCHT__12 CCHT__12     0 0            0.0     0.0     0.0     0.0
CCHT__13 CCHT__13     0 0            0.0     0.0     0.0     0.0
CCHT__14 CCHT__14     0 0            0.0     0.0     0.0     0.0
CHOLS_52 CHOLS_52     0 2  119.0   10.49    1.67  -1.909     0.0     0.0   -7.84     0.0     0.0
CYCHN_51 CYCHN_51     0 0            0.0     0.0     0.0     0.0
CKOC__13 CKOC__13     0 0            0.0     0.0     0.0     0.0
CKOC__14 CKOC__14     0 0            0.0     0.0     0.0     0.0
CKOC__51 CKOC__51     0 0            0.0     0.0     0.0     0.0
CKOC__52 CKOC__52     0 0            0.0     0.0     0.0     0.0
CKOC__53 CKOC__53     0 0            0.0     0.0     0.0     0.0
CKOC__54 CKOC__54     0 0            0.0     0.0     0.0     0.0
CKOC__55 CKOC__55     0 0            0.0     0.0     0.0     0.0
CKOC__56 CKOC__56     0 0            0.0     0.0     0.0     0.0
CKOC__57 CKOC__57     0 0            0.0     0.0     0.0     0.0
CKOC__58 CKOC__58     0 0            0.0     0.0     0.0     0.0
CKOC__19 CKOC__19     0 0            0.0     0.0     0.0     0.0
CKOC__1A CKOC__1A     0 0            0.0     0.0     0.0     0.0
CKOC__1C CKOC__1C     0 0            0.0     0.0     0.0     0.0
CKOC__1E CKOC__1E     0 0            0.0     0.0     0.0     0.0
CKOC__17 CKOC__17     0 0            0.0     0.0     0.0     0.0
CKRA__11 CKRA__11     0 0            0.0   67.47     0.0     0.0
CKRA__12 CKRA__12     0 0            0.0     0.0     0.0     0.0
CKRA__15 CKRA__15     0 0            0.0     0.0     0.0     0.0
CKRA__51 CKRA__51     0 2  120.1     0.0     0.0  -1.357  48.064     5.0    -5.0    60.0  -108.0
CKRA__52 CKRA__52     0 2  120.3     0.0     0.0  -0.978  47.683     5.0    -5.0    60.0  -108.0
CKRA__53 CKRA__53     0 0            0.0     0.0     0.0     0.0
CKRA__54 CKRA__54     0 0            0.0     0.0     0.0     0.0
CKRA__55 CKRA__55     0 0            0.0     0.0     0.0     0.0
CKRA__56 CKRA__56     0 0          -0.27   -7.36     0.0     0.0
CLIS__21 CLIS__21     0 0            0.0     0.0     0.0     0.0
CLIS__22 CLIS__22     0 0            0.0     0.0     0.0     0.0
CLIS__25 CLIS__25     0 0            0.0     0.0     0.0     0.0
CLIS__51 CLIS__51     0 0            0.0     0.0     0.0   -0.01     0.0  -16.07     0.0     0.0
CLIS__52 CLIS__52     0 0            0.0     0.0     0.0     0.0
CLIS__53 CLIS__53     0 0            0.0     0.0     0.0     0.0
CLIS__54 CLIS__54     0 2  118.1   16.25   -0.63  -2.781     0.0     0.0  -16.07     0.0     0.0
CLIS__55 CLIS__55     0 0            0.0     0.0     0.0     0.0
CLIS__56 CLIS__56     0 0            0.0     0.0     0.0   -0.01     0.0  -16.07     0.0     0.0
CLIS__57 CLIS__57     0 0            0.0     0.0     0.0     0.0
CLIS__58 CLIS__58     0 0            0.0     0.0     0.0     0.0
CPRIR_51 CPRIR_51     0 0            0.0     0.0     0.0     0.0
CMAL__21 CMAL__21     0 0            0.0     0.0     0.0     0.0
CMAL__22 CMAL__22     0 0            0.0     0.0     0.0     0.0
CMAL__51 CMAL__51     0 0            0.0     0.0     0.0     0.0
CMAL__52 CMAL__52     0 0          13.15   -0.72     0.0     0.0
CMAL__53 CMAL__53     0 0            0.0     0.0     0.0     0.0
CMAL__54 CMAL__54     0 2  116.9   20.79    -5.3  -5.635  -3.678     0.0   -17.5     5.0    -5.0
CMAL__55 CMAL__55     0 0            0.0     0.0     0.0     0.0
CMAL__56 CMAL__56     0 0            0.0     0.0     0.0     0.0
CMIL__21 CMIL__21     0 0            0.0     0.0     0.0     0.0
CMIL__22 CMIL__22     0 0            0.0     0.0     0.0     0.0
CMIL__25 CMIL__25     0 0            0.0     0.0     0.0     0.0
CMIL__51 CMIL__51     0 0            0.0     0.0     0.0     0.0
CMIL__52 CMIL__52     0 0            0.0     0.0     0.0     0.0
CPRST_51 CPRST_51     0 0          11.16    2.58     0.0     0.0
CYDA2_51 CYDA2_51     0 0            0.0     0.0     0.0     0.0
CPRST_52 CPRST_52     0 0            0.0     0.0     0.0     0.0
CPRST_53 CPRST_53     0 0            0.0     0.0     0.0     0.0
CPASK_51 CPASK_51     0 0           0.39    -1.7     0.0     0.0
CNEZ__11 CNEZ__11     0 0            0.0     0.0     0.0     0.0
CNEZ__12 CNEZ__12     0 0            0.0     0.0     0.0     0.0
CNEZ__15 CNEZ__15     0 0            0.0     0.0     0.0     0.0
CNEZ__51 CNEZ__51     0 0           0.33     0.0     0.0     0.0
CNEZ__52 CNEZ__52     0 0            0.0     0.0     0.0     0.0
CNEZ__53 CNEZ__53     0 0           0.33  -12.61     0.0     0.0
CNEZ__55 CNEZ__55     0 0            0.0     0.0     0.0     0.0
CNEZ__54 CNEZ__54     0 0            0.0     0.0     0.0     0.0
CPASK_52 CPASK_52     0 0            0.0     0.0     0.0     0.0
CCLOU_51 CCLOU_51     0 0            0.0     0.0     0.0     0.0
CCLOU_52 CCLOU_52     0 0          17.63   -4.42     0.0     0.0
CYDCS_51 CYDCS_51     0 0            0.0     0.0     0.0     0.0
CSDCD_51 CSDCD_51     0 0            0.0     0.0     0.0     0.0
CYDCS_52 CYDCS_52     0 0            0.0     0.0     0.0     0.0
CSDCD_52 CSDCD_52     0 0           2.11   -1.34     0.0     0.0
CNOS__11 CNOS__11     0 0            0.0     0.0     0.0     0.0
CNOS__12 CNOS__12     0 0            0.0     0.0     0.0     0.0
CNOS__15 CNOS__15     0 0            0.0     0.0     0.0     0.0
CNOS__51 CNOS__51     0 2  118.0   27.28    3.42  -0.734     0.0     0.0  -12.44     0.0     0.0
CNOS__52 CNOS__52     0 0            0.0     0.0     0.0     0.0
CNOS__53 CNOS__53     0 0            0.0     0.0     0.0     0.0
CNOS__54 CNOS__54     0 0            0.0     0.0     0.0     0.0
CNOS__55 CNOS__55     0 0            0.0     0.0     0.0     0.0
CNOS__56 CNOS__56     0 0            0.0     0.0     0.0     0.0
CDOMA_51 CDOMA_51     0 0            0.0     0.0     0.0     0.0
CPLZS_51 CPLZS_51     0 0            0.0     0.0     0.0     0.0
CPLZS_52 CPLZS_52     0 0           8.38   -1.95     0.0     0.0
COPJA_51 COPJA_51     0 2  117.3    24.2    0.77  -1.905     0.0     0.0  -21.01     0.0     0.0
COPJA_52 COPJA_52     0 0            0.0     0.0     0.0     0.0
COPO__21 COPO__21     0 0            0.0     0.0     0.0     0.0
COPO__22 COPO__22     0 0            0.0     0.0     0.0     0.0
COPO__25 COPO__25     0 0            0.0     0.0     0.0     0.0
COPO__51 COPO__51     0 2  115.4   40.59   -3.77  -1.439     0.0     0.0  -41.58     0.0     0.0
COPO__52 COPO__52     0 0            0.0     0.0     0.0     0.0
COPO__53 COPO__53     0 0           3.58  -11.87     0.0     0.0
COPO__54 COPO__54     0 0            0.0     0.0     0.0     0.0
CFRYO_51 CFRYO_51     0 0            0.0     0.0     0.0     0.0
CFRYO_52 CFRYO_52     0 2  117.0   10.96    0.13  -1.919     0.0     0.0  -18.98     0.0     0.0
CDLUH_51 CDLUH_51     0 0            0.0     0.0     0.0   -0.01     0.0  -12.76     0.0     0.0
CDLUH_52 CDLUH_52     0 2  117.6   26.55   -4.62  -2.085     0.0     0.0  -25.52     0.0     0.0
CDLUH_53 CDLUH_53     0 0            0.0     0.0     0.0     0.0
CYHSC_51 CYHSC_51     0 0            0.0     0.0     0.0     0.0
COTR__11 COTR__11     0 0            0.0     0.0     0.0     0.0
COTR__12 COTR__12     0 0            0.0     0.0     0.0     0.0
COTR__15 COTR__15     0 0            0.0     0.0     0.0     0.0
COTR__51 COTR__51     0 0            0.0     0.0     0.0     0.0
COTR__52 COTR__52     0 0            0.0     0.0     0.0     0.0
COTR__53 COTR__53     0 0            0.0     0.0     0.0     0.0
COTR__54 COTR__54     0 0            0.0     0.0     0.0     0.0
COTR__55 COTR__55     0 0            0.0     0.0     0.0     0.0
COTR__56 COTR__56     0 0            0.0     0.0     0.0     0.0
COTR__57 COTR__57     0 0            0.0     0.0     0.0     0.0
COTR__58 COTR__58     0 0            0.0     0.0     0.0     0.0
CYHSC_52 CYHSC_52     0 0            0.0     0.0     0.0     0.0
CPRE__11 CPRE__11     0 0            0.0     0.0     0.0     0.0
CPRE__12 CPRE__12     0 0            0.0     0.0     0.0     0.0
CPRE__15 CPRE__15     0 0            0.0     0.0     0.0     0.0
CPRE__21 CPRE__21     0 0            0.0     0.0     0.0     0.0
CPRE__51 CPRE__51     0 0            0.0     0.0     0.0     0.0
CPRE__52 CPRE__52     0 0            0.0     0.0     0.0   -0.01     0.0  -15.75     0.0     0.0
CPRE__56 CPRE__56     0 0            0.0     0.0     0.0     0.0
CPRE__57 CPRE__57     0 2  119.4   16.52   -4.01  -3.844     0.0     0.0  -15.75     0.0     0.0
CPRE__58 CPRE__58     0 0            0.0     0.0     0.0     0.0
CPRE__59 CPRE__59     0 0            0.0     0.0     0.0     0.0
CE803_51 CE803_51     0 0            0.0     0.0     0.0     0.0
CE803_52 CE803_52     0 0           4.09   -2.56     0.0     0.0
CPRN__11 CPRN__11     0 0            0.0     0.0     0.0     0.0
CPRN__12 CPRN__12     0 0            0.0     0.0     0.0     0.0
CPRN__15 CPRN__15     0 0            0.0     0.0     0.0     0.0
CPRN__21 CPRN__21     0 0            0.0     0.0     0.0     0.0
CPRN__22 CPRN__22     0 0            0.0     0.0     0.0     0.0
CPRN__25 CPRN__25     0 0            0.0     0.0     0.0     0.0
CPRN__51 CPRN__51     0 2  117.8   28.75    6.29  -0.249     0.0     0.0  -10.71     0.0     0.0
CPRN__52 CPRN__52     0 0            0.0     0.0     0.0     0.0
CPRN__55 CPRN__55     0 0            0.0     0.0     0.0     0.0
CJIRI_51 CJIRI_51     0 0           3.61    0.48     0.0     0.0
CKARP_51 CKARP_51     0 0           23.4   -1.72     0.0     0.0
CPRN__19 CPRN__19     0 0            0.0     0.0     0.0     0.0
CPRN__1A CPRN__1A     0 0            0.0     0.0     0.0     0.0
CKARP_52 CKARP_52     0 0            0.0     0.0     0.0     0.0
CSUSI_51 CSUSI_51     0 0            0.0     0.0     0.0     0.0
CREP__11 CREP__11     0 0            0.0     0.0     0.0     0.0
CREP__12 CREP__12     0 0            0.0     0.0     0.0     0.0
CREP__13 CREP__13     0 0            0.0     0.0     0.0     0.0
CREP__14 CREP__14     0 0            0.0     0.0     0.0     0.0
CREP__15 CREP__15     0 0            0.0     0.0     0.0     0.0
CREP__16 CREP__16     0 0            0.0     0.0     0.0     0.0
CREP__51 CREP__51     0 0            0.0     0.0     0.0     0.0
CREP__52 CREP__52     0 0            0.0     0.0     0.0     0.0
CREP__53 CREP__53     0 0            0.0     0.0     0.0     0.0
CREP__54 CREP__54     0 2  116.9    7.02  -11.48  -0.582     0.0     0.0   -8.46     0.0     0.0
CREP__55 CREP__55     0 2  116.9    4.66    -5.1  -0.574     0.0     0.0   -8.46     0.0     0.0
CREP__56 CREP__56     0 0            0.0     0.0     0.0     0.0
CREP__57 CREP__57     0 0            0.0     0.0     0.0     0.0
CREP__58 CREP__58     0 0            0.0     0.0     0.0     0.0
CSLV__1B CSLV__1B     0 0            0.0     0.0     0.0     0.0
CSLV__1C CSLV__1C     0 0            0.0     0.0     0.0     0.0
CSLV__1D CSLV__1D     0 0            0.0     0.0     0.0     0.0
CSLV__1E CSLV__1E     0 0            0.0     0.0     0.0     0.0
CSLV__1F CSLV__1F     0 0            0.0     0.0     0.0     0.0
CSLV__1G CSLV__1G     0 0            0.0     0.0     0.0     0.0
CSLV__1K CSLV__1K     0 0            0.0     0.0     0.0     0.0
CSLV__1L CSLV__1L     0 0            0.0     0.0     0.0     0.0
CSLV__1M CSLV__1M     0 0            0.0     0.0     0.0     0.0
CSLV__1N CSLV__1N     0 0            0.0     0.0     0.0     0.0
CSLV__1H CSLV__1H     0 0            0.0     0.0     0.0     0.0
CSLV__1I CSLV__1I     0 0            0.0     0.0     0.0     0.0
CSLV__1J CSLV__1J     0 0            0.0     0.0     0.0     0.0
CSLV__1A CSLV__1A     0 0            0.0     0.0     0.0     0.0
CSUSI_52 CSUSI_52     0 0           9.19   -0.21     0.0     0.0
CSTER_51 CSTER_51     0 0            0.0     0.0     0.0     0.0
CSTER_52 CSTER_52     0 0            0.0     0.0     0.0     0.0
CSTER_53 CSTER_53     0 2  117.9   14.98   -1.06     0.0   0.339     0.0   -18.0     1.8   -2.16
COVET_51 COVET_51     0 0          11.08   -0.76     0.0     0.0
CSLV__51 CSLV__51     0 0            0.0     0.0     0.0     0.0
CSLV__52 CSLV__52     0 0            0.0     0.0     0.0     0.0
CSLV__53 CSLV__53     0 0            0.0     0.0     0.0     0.0
CSLV__54 CSLV__54     0 0            0.0     0.0     0.0     0.0
CSLV__55 CSLV__55     0 0            0.0     0.0     0.0     0.0
CSLV__56 CSLV__56     0 0            0.0     0.0     0.0     0.0
CSLV__57 CSLV__57     0 0            0.0     0.0     0.0     0.0
CSLV__58 CSLV__58     0 0            0.0     0.0     0.0     0.0
CSOK__11 CSOK__11     0 0            0.0     0.0     0.0     0.0
CSOK__12 CSOK__12     0 0            0.0     0.0     0.0     0.0
CSOK__15 CSOK__15     0 0            0.0     0.0     0.0     0.0
CSOK__21 CSOK__21     0 0            0.0     0.0     0.0     0.0
CSOK__22 CSOK__22     0 0            0.0     0.0     0.0     0.0
CSOK__25 CSOK__25     0 0            0.0     0.0     0.0     0.0
CSOK__51 CSOK__51     0 0            0.0     0.0     0.0     0.0
CSOK__52 CSOK__52     0 0            0.0     0.0     0.0   -0.01     0.0  -50.61     0.0     0.0
CSOK__53 CSOK__53     0 0            0.0     0.0     0.0     0.0
CSOK__54 CSOK__54     0 0            0.0     0.0     0.0     0.0
CSOK__55 CSOK__55     0 2  118.9   40.35    0.24  -3.743     0.0     0.0 -101.21     0.0     0.0
CSOK__56 CSOK__56     0 0          -0.06   -2.03     0.0     0.0
CSOK__57 CSOK__57     0 0            0.0     0.0     0.0     0.0